<?xml version="1.0" encoding="UTF-8"?>

<!-- generated on 2025-05-01 10:03:57 by Eclipse SUMO netedit Version 1.22.0
<neteditConfiguration xmlns:xsi="http://www.w3.org/2001/XMLSchema-instance" xsi:noNamespaceSchemaLocation="http://sumo.dlr.de/xsd/neteditConfiguration.xsd">

    <input>
        <sumocfg-file value="D:\JUST\Thesis\Implementation\Traci\traci1.sumocfg"/>
        <sumo-net-file value="D:\JUST\Thesis\Implementation\Traci\traci1.net.xml"/>
    </input>

    <output>
        <output-file value="D:\JUST\Thesis\Implementation\Traci\traci1.net.xml"/>
    </output>

    <processing>
        <offset.disable-normalization value="true"/>
    </processing>

    <junctions>
        <no-turnarounds value="true"/>
    </junctions>

    <netedit>
        <new-network value="false"/>
    </netedit>

</neteditConfiguration>
-->

<net version="1.20" junctionCornerDetail="5" limitTurnSpeed="5.50" xmlns:xsi="http://www.w3.org/2001/XMLSchema-instance" xsi:noNamespaceSchemaLocation="http://sumo.dlr.de/xsd/net_file.xsd">

    <location netOffset="0.00,0.00" convBoundary="-56.09,-12.35,21.43,19.89" origBoundary="10000000000.00,10000000000.00,-10000000000.00,-10000000000.00" projParameter="!"/>

    <edge id=":J6_0" function="internal">
        <lane id=":J6_0_0" index="0" speed="13.89" length="11.06" shape="-13.03,21.15 -24.09,21.05"/>
    </edge>
    <edge id=":J6_1" function="internal">
        <lane id=":J6_1_0" index="0" speed="6.52" length="8.96" shape="-18.55,12.34 -18.18,14.78 -17.14,16.52 -15.41,17.58 -13.00,17.95"/>
    </edge>
    <edge id=":J6_2" function="internal">
        <lane id=":J6_2_0" index="0" speed="7.26" length="11.65" shape="-18.55,12.34 -18.87,16.17 -19.90,18.90 -21.64,20.52 -24.09,21.05"/>
    </edge>
    <edge id=":J6_3" function="internal">
        <lane id=":J6_3_0" index="0" speed="13.89" length="11.06" shape="-24.06,17.85 -13.00,17.95"/>
    </edge>

    <edge id="-E1" from="J4" to="J6" priority="-1">
        <lane id="-E1_0" index="0" speed="13.89" length="34.45" shape="21.42,21.49 -13.03,21.15"/>
    </edge>
    <edge id="-E10" from="J6" to="J3" priority="-1">
        <lane id="-E10_0" index="0" speed="13.89" length="32.02" shape="-24.09,21.05 -56.11,20.73"/>
    </edge>
    <edge id="E1" from="J3" to="J6" priority="-1">
        <lane id="E1_0" index="0" speed="13.89" length="32.02" shape="-56.08,17.54 -24.06,17.85"/>
    </edge>
    <edge id="E1.36" from="J6" to="J4" priority="-1">
        <lane id="E1.36_0" index="0" speed="13.89" length="34.45" shape="-13.00,17.95 21.45,18.29"/>
    </edge>
    <edge id="E2" from="J7" to="J6" priority="-1">
        <lane id="E2_0" index="0" speed="13.89" length="24.71" shape="-18.74,-12.36 -18.55,12.34"/>
    </edge>

    <junction id="J3" type="dead_end" x="-56.09" y="19.13" incLanes="-E10_0" intLanes="" shape="-56.09,19.13 -56.12,22.33 -56.09,19.13"/>
    <junction id="J4" type="dead_end" x="21.43" y="19.89" incLanes="E1.36_0" intLanes="" shape="21.43,19.89 21.46,16.69 21.43,19.89"/>
    <junction id="J6" type="priority" x="-20.09" y="19.49" incLanes="-E1_0 E2_0 E1_0" intLanes=":J6_0_0 :J6_1_0 :J6_2_0 :J6_3_0" shape="-13.05,22.75 -12.99,16.35 -15.17,15.89 -15.94,15.33 -16.49,14.55 -16.83,13.55 -16.95,12.33 -20.15,12.35 -20.57,14.53 -21.11,15.29 -21.87,15.83 -22.85,16.15 -24.05,16.25 -24.11,22.65">
        <request index="0" response="0000" foes="0100" cont="0"/>
        <request index="1" response="1000" foes="1000" cont="0"/>
        <request index="2" response="1001" foes="1001" cont="0"/>
        <request index="3" response="0000" foes="0110" cont="0"/>
    </junction>
    <junction id="J7" type="dead_end" x="-20.34" y="-12.35" incLanes="" intLanes="" shape="-20.34,-12.35 -17.14,-12.38"/>

    <connection from="-E1" to="-E10" fromLane="0" toLane="0" via=":J6_0_0" dir="s" state="M"/>
    <connection from="E1" to="E1.36" fromLane="0" toLane="0" via=":J6_3_0" dir="s" state="M"/>
    <connection from="E2" to="E1.36" fromLane="0" toLane="0" via=":J6_1_0" dir="r" state="m"/>
    <connection from="E2" to="-E10" fromLane="0" toLane="0" via=":J6_2_0" dir="l" state="m"/>

    <connection from=":J6_0" to="-E10" fromLane="0" toLane="0" dir="s" state="M"/>
    <connection from=":J6_1" to="E1.36" fromLane="0" toLane="0" dir="r" state="M"/>
    <connection from=":J6_2" to="-E10" fromLane="0" toLane="0" dir="l" state="M"/>
    <connection from=":J6_3" to="E1.36" fromLane="0" toLane="0" dir="s" state="M"/>

</net>
