<?xml version="1.0" encoding="UTF-8"?>

<!-- generated on 2025-07-17 15:52:17 by Eclipse SUMO netedit Version 1.22.0
<neteditConfiguration xmlns:xsi="http://www.w3.org/2001/XMLSchema-instance" xsi:noNamespaceSchemaLocation="http://sumo.dlr.de/xsd/neteditConfiguration.xsd">

    <input>
        <sumocfg-file value="D:\JUST\Thesis\Implementation\New\test.sumocfg"/>
        <route-files value="D:\JUST\Thesis\Implementation\New\test.rou.xml"/>
        <sumo-net-file value="D:\JUST\Thesis\Implementation\New\test.net.xml"/>
    </input>

    <output>
        <output-file value="D:\JUST\Thesis\Implementation\New\test.net.xml"/>
    </output>

    <processing>
        <offset.disable-normalization value="true"/>
    </processing>

    <junctions>
        <no-turnarounds value="true"/>
    </junctions>

    <netedit>
        <new-network value="false"/>
    </netedit>

</neteditConfiguration>
-->

<net version="1.20" junctionCornerDetail="5" limitTurnSpeed="5.50" xmlns:xsi="http://www.w3.org/2001/XMLSchema-instance" xsi:noNamespaceSchemaLocation="http://sumo.dlr.de/xsd/net_file.xsd">

    <location netOffset="0.00,0.00" convBoundary="-68.53,9.03,48.60,9.03" origBoundary="10000000000.00,10000000000.00,-10000000000.00,-10000000000.00" projParameter="!"/>

    <edge id="-E0" from="J1" to="J0" priority="-1">
        <lane id="-E0_0" index="0" speed="13.89" length="117.13" shape="48.60,10.63 -68.53,10.63"/>
    </edge>
    <edge id="E0" from="J0" to="J1" priority="-1">
        <lane id="E0_0" index="0" speed="13.89" length="117.13" shape="-68.53,7.43 48.60,7.43"/>
    </edge>

    <junction id="J0" type="dead_end" x="-68.53" y="9.03" incLanes="-E0_0" intLanes="" shape="-68.53,9.03 -68.53,12.23 -68.53,9.03"/>
    <junction id="J1" type="dead_end" x="48.60" y="9.03" incLanes="E0_0" intLanes="" shape="48.60,9.03 48.60,5.83 48.60,9.03"/>

</net>
